/*--------------------------------*- C++ -*----------------------------------*\
  =========                 |
  \\      /  F ield         | OpenFOAM: The Open Source CFD Toolbox
   \\    /   O peration     | Website:  https://openfoam.org
    \\  /    A nd           | Version:  dev
     \\/     M anipulation  |
\*---------------------------------------------------------------------------*/
FoamFile
{
    format      ascii;
    class       extendedFeatureEdgeMesh;
    location    "constant/extendedFeatureEdgeMesh";
    object      HumanHQ0deg.extendedFeatureEdgeMesh;
}
// * * * * * * * * * * * * * * * * * * * * * * * * * * * * * * * * * * * * * //

// points

1142
(
(208.189 60.6953 -924.725)
(239.552 71.8762 -917.172)
(340.233 -162.592 -917.839)
(329.326 -168.768 -913.369)
(343.646 -153.753 -915.266)
(320.555 -175.044 -919.817)
(323.1 -169.882 -909.498)
(318.791 -173.849 -919.063)
(292.827 -180.008 -904.948)
(310.965 -181.355 -912.889)
(310.689 -185.2 -917.858)
(313.491 -176.014 -921.163)
(304.754 -177.766 -922.562)
(294.627 -187.565 -920.777)
(276.251 -197.831 -920.945)
(275.711 -182.487 -924.985)
(254.742 -193.224 -924.63)
(264.488 -203.184 -912.523)
(265.777 -203.158 -912.522)
(258.204 -201.137 -919.504)
(276.847 -195.046 -908.827)
(293.314 -191.728 -917.582)
(332.992 -113.106 -903.634)
(342.858 -138.264 -914.204)
(325.424 -95.2479 -923.58)
(4.16638 -143.45 -82.3638)
(33.567 -143.685 495.818)
(83.8887 17.6174 859.961)
(41.3194 -94.9291 850.715)
(39.8564 -94.8225 842.329)
(31.2003 -96.235 842.096)
(36.8687 -95.6233 842.185)
(18.7419 -113.043 800.98)
(6.03785 -136.308 801.766)
(22.9403 -88.7236 723.379)
(12.3725 -84.0351 717.604)
(80.8255 0.721293 856.062)
(655.028 -11.3795 -10.7486)
(656.151 -3.33363 -7.94273)
(656.074 -17.0453 -2.70604)
(662.743 28.1529 100.371)
(649.195 20.2396 24.0517)
(631.859 22.7967 7.15248)
(632.387 25.38 29.5383)
(637.49 23.4073 4.2505)
(339.484 114.39 428.6)
(353.72 119.236 402.94)
(619.509 24.1351 197.989)
(19.9412 -109.481 869.677)
(91.684 27.3481 824.637)
(94.1494 29.6814 847.496)
(79.5927 6.25681 799.095)
(619.502 23.367 131.607)
(593.204 -32.8208 137.77)
(689.438 -64.076 9.03896)
(669.381 -33.5577 46.8949)
(666.559 -40.173 -4.66197)
(670.198 -48.4623 -10.1742)
(583.338 -32.037 151.236)
(599.099 -113.477 55.8977)
(600.859 -101.81 55.8606)
(609.402 -107.227 61.4062)
(590.133 -100.195 57.1465)
(591.208 -108.287 57.6167)
(608.044 -115.779 65.1115)
(613.166 -100.502 90.111)
(615.329 -97.6109 79.9711)
(694.581 -74.7681 66.1817)
(697.777 -78.4202 11.6691)
(681.893 -74.0335 3.29836)
(688.341 -82.6591 4.88417)
(687.145 -70.2301 -0.683701)
(694.115 -71.9472 -3.55846)
(692.603 -78.8144 -3.30418)
(628.859 19.0842 19.8688)
(636.779 12.6229 37.0733)
(639.704 16.2595 8.54152)
(631.497 14.9897 12.3516)
(644.953 -6.32235 2.20491)
(650.222 0.726336 -2.17381)
(651.13 -4.53747 -10.7596)
(649.156 -13.7674 -4.75804)
(673.934 -47.7865 61.8794)
(675.892 -37.984 -15.8738)
(672.474 -34.9644 -11.5876)
(676.992 -53.1951 -9.00304)
(679.591 -46.4911 -16.3296)
(679.038 -45.6174 -17.2139)
(13.2492 -109.344 772.503)
(2.79569 -137.488 809.417)
(-4.94216 -137.812 804.209)
(255.773 -190.324 -904.515)
(-206.569 61.2628 -923.089)
(-335.536 -152.729 -906.988)
(-329.08 -167.669 -912.154)
(-340.322 -163.327 -917.06)
(-327.495 -172.901 -918.759)
(-320.317 -164.367 -904.687)
(-300.322 -164.531 -898.259)
(-307.01 -181.131 -911.08)
(-310.286 -183.322 -919.285)
(-327.752 -153.681 -918.079)
(-311.899 -166.235 -920.75)
(-297.595 -188.913 -918.522)
(-290.826 -191.576 -917.398)
(-275.473 -191.058 -906.159)
(-243.866 -174.524 -921.8)
(-276.29 -190.672 -925.057)
(-270.363 -200.807 -920.85)
(-275.338 -198.719 -910.814)
(-258.371 -195.869 -925.459)
(-262.475 -202.493 -911.65)
(-260.915 -202.168 -920.047)
(-258.77 -189.296 -902.956)
(-338.538 -118.344 -911.686)
(-343.417 -152.613 -912.61)
(-327.514 -92.0576 -921.346)
(-326.198 -74.6002 -913.734)
(-273.061 42.5548 -852.965)
(-92.2284 19.6352 860.414)
(-39.3442 -94.9684 842.366)
(-19.3639 -112.548 802.23)
(-81.9035 -3.29658 844.735)
(-77.5707 -1.16995 834.906)
(-671.559 -36.0796 -11.2777)
(-671.121 -44.4044 -14.5663)
(-676.978 -49.592 -15.2073)
(-653.038 1.52336 24.6273)
(-647.518 -13.4976 0.707535)
(-654.313 -16.7295 -5.05064)
(-675.641 -11.9734 52.7528)
(-655.462 26.2399 54.3093)
(-633.333 27.7656 15.2411)
(-638.453 24.4876 5.41158)
(-641.654 13.9752 15.7766)
(-92.9474 28.2504 829.772)
(-92.758 28.7037 847.247)
(-94.4032 24.9746 850.719)
(-693.452 -65.8674 5.08473)
(-667.778 -47.7045 -2.23051)
(-690.15 -26.0346 89.6646)
(-604.592 -74.0484 186.928)
(-593.161 -107.564 54.1037)
(-601.472 -104.095 55.4905)
(-589.975 -96.8524 58.583)
(-602.782 -114.504 58.1187)
(-609 -113.99 72.6911)
(-610.69 -110.437 64.6154)
(-600.569 -90.5989 62.8526)
(-592.28 -87.8131 67.7067)
(-604.096 -35.5299 132.711)
(-683.16 -80.8371 29.9428)
(-695.372 -74.7246 -2.88499)
(-692.58 -80.9393 -1.84227)
(-689.385 -83.6292 6.62331)
(-685.72 -78.4699 -0.19371)
(-687.483 -70.9423 -1.6953)
(-641.27 11.929 67.4613)
(-629.276 17.8117 18.419)
(-638.055 10.8725 29.6859)
(-637.987 18.6086 4.22652)
(-630.718 21.6398 8.25221)
(-633.296 15.2858 8.91444)
(-654.474 -1.64433 76.5529)
(-655.782 1.53995 1.42836)
(-647.187 -2.73805 -3.78551)
(-652.956 -3.8362 -10.4855)
(-645.935 -5.09325 9.17073)
(-655.165 -11.3756 -10.014)
(-683.065 -50.2461 -2.81511)
(-675.504 -53.2921 -3.65349)
(-49.5675 -87.3958 847.029)
(-39.5742 -96.154 851.56)
(-50.8327 -86.2493 846.56)
(-51.716 -84.2279 845.539)
(-251.692 -195.276 -916.88)
(73.235 3.42678 821.265)
(24.1869 -95.198 767.005)
(326.354 -149.095 -907.985)
(314.181 -166.669 -913.631)
(274.612 -168.156 -905.541)
(59.4047 77.0744 -103.225)
(28.321 68.5889 -90.8974)
(93.2317 26.409 849.696)
(18.7198 -90.2146 846.428)
(19.7374 -90.3827 847.737)
(81.6223 9.45366 824.264)
(77.8508 -1.94822 842.438)
(75.7266 15.6103 811.986)
(79.0551 25.7789 828.031)
(93.064 27.9587 832.028)
(298.125 14.9244 505.633)
(306.739 42.7349 516.302)
(601.287 -25.89 147.639)
(683.035 -48.633 84.333)
(405.041 11.8555 374.348)
(205.446 103.627 417.509)
(224.072 -12.9631 507.74)
(201.776 -23.8606 536.937)
(4.96097 -25.4247 641.005)
(77.908 -0.997951 840.552)
(8.01444 -120.771 799.692)
(48.8809 -84.3101 846.442)
(50.7852 -83.3793 845.167)
(-6.62683 -119.776 799.57)
(-29.2979 -138.257 -75.5024)
(-312.918 -163.931 -915.373)
(-313.661 -165.636 -913.896)
(-325.633 -147.092 -917.272)
(-275.238 -168.568 -906.323)
(-249.488 -26.4895 -795.414)
(-173.704 40.1871 -446.592)
(-11.0519 -77.6353 -76.1286)
(-19.0405 -90.4471 846.794)
(-19.0181 -90.1334 845.112)
(-17.4542 -90.2474 845.216)
(-75.7208 7.19749 822.07)
(-72.8203 1.29647 820.457)
(-76.2214 9.67165 836.232)
(-85.3033 9.67705 849.527)
(-80.4169 0.256737 855.636)
(-79.5093 -2.38283 851.99)
(-34.4394 -29.8583 715.085)
(-80.4454 17.3402 815.824)
(-202.362 106.509 419.609)
(-208.109 76.8113 417.328)
(-288.46 5.28559 505.469)
(-208.363 -21.6198 529.75)
(-123.602 39.4779 300.632)
(-48.4233 -84.3763 846.555)
(14.9607 -107.88 794.977)
(40.2297 -95.8908 812.792)
(-2.37747 -114.049 789.01)
(3.46363 -130.253 795.553)
(-5.39612 -132.831 795.953)
(83.82 2.52951 809.728)
(89.6178 8.4492 818.934)
(79.2128 -0.75394 817.162)
(76.9889 -0.714426 834.022)
(9.08048 -105.696 768.766)
(31.3788 -93.294 765.507)
(22.2982 -97.5807 767.169)
(14.0703 -108.811 772.634)
(24.6552 -94.9578 767.485)
(28.4666 -94.0703 767.004)
(23.8418 -96.0732 767.773)
(19.7354 -99.3067 767.989)
(336.533 -142.366 -902.576)
(315.955 -144.272 -895.355)
(327.844 -153.949 -917.991)
(327.092 -148.872 -917.627)
(328.084 -153.487 -912.59)
(327.514 -154.012 -918.104)
(328.578 -154.589 -913.77)
(312.883 -163.566 -906.12)
(295.564 -169.117 -905.444)
(285.363 -188.484 -909.366)
(298.817 -177.091 -912.759)
(299.068 -176.665 -914.714)
(297.455 -163.569 -897.807)
(312.731 -164.205 -918.419)
(319.363 -173.447 -920.245)
(326.389 -149.488 -917.502)
(312.396 -163.352 -919.085)
(297.607 -171.775 -920.322)
(279.388 -179.3 -913.358)
(279.805 -177.286 -919.123)
(275.994 -192.708 -907.157)
(286.094 -190.084 -910.82)
(267.017 -163.381 -894.093)
(279.694 -175.676 -919.289)
(253.726 -177.346 -926.306)
(255.19 -190.378 -904.939)
(280.047 -176.75 -919.152)
(229.216 -144.709 -918.93)
(259.604 -189.24 -902.96)
(327.623 -78.9133 -915.25)
(211.578 -32.2462 -841.937)
(251.685 -30.0836 -802.445)
(212.593 -24.7474 -799.266)
(231.121 -35.0032 -805.524)
(230.338 -27.3619 -781.511)
(267.392 -4.46307 -789.556)
(243.984 -11.3607 -438.769)
(202.035 40.5084 -443.479)
(182.725 44.1112 -437.01)
(63.6983 91.4515 -92.9317)
(23.418 -121.121 -82.2118)
(32.9935 -149.061 -64.6022)
(8.54695 -38.551 -69.1405)
(0.419294 -77.5155 -76.9222)
(90.1922 14.1669 861.395)
(81.0872 11.5821 864.108)
(91.049 20.497 857.814)
(20.596 -90.2067 845.926)
(21.0213 -90.1054 848.148)
(10.8226 -99.6784 844.539)
(17.6639 -94.4047 846.548)
(39.3367 -95.7842 851.088)
(47.1951 -89.3058 848.471)
(48.4467 -87.5988 844.053)
(38.5872 -95.2875 842.122)
(39.3229 -94.9871 842.35)
(3.91138 -112.798 843.015)
(52.2027 -82.8903 844.922)
(38.1775 -86.8812 752.146)
(78.8173 -14.1529 840.203)
(82.0152 -2.56892 859.185)
(76.7583 10.65 833.951)
(77.5255 0.789601 839.951)
(77.9198 -0.220109 839.839)
(86.4745 11.4339 860.265)
(88.8354 10.7033 849.191)
(94.5336 13.8199 836.689)
(77.9616 -3.19493 847.467)
(77.7652 -0.53586 840.393)
(79.8421 -1.50178 853.567)
(85.5048 10.407 860.156)
(80.0396 -1.02247 854.343)
(82.1379 -5.24329 846.991)
(77.958 -3.2408 847.422)
(16.2827 -52.1851 718.785)
(5.28153 -43.2085 705.412)
(664.968 6.76402 83.6986)
(666.156 14.6591 88.8569)
(645.957 12.3041 35.0667)
(653.738 10.2588 83.7369)
(641.806 7.57682 87.0546)
(323.729 92.1586 372.49)
(601.653 26.8016 185.77)
(57.4878 43.9759 710.385)
(29.2824 71.7412 726.775)
(77.666 33.155 851.842)
(66.33 30.9007 816.817)
(85.3584 26.6293 847.605)
(93.193 110.059 668.909)
(92.8246 107.423 671.735)
(80.9911 12.8242 804.725)
(71.1667 -4.98021 795.451)
(92.6256 26.9216 829.443)
(93.198 28.2374 833.967)
(93.5057 28.2885 835.603)
(93.7245 22.8217 857.601)
(188.008 140.667 456.72)
(576.429 5.08656 188.523)
(613.354 -38.4148 130.041)
(659.547 -61.2998 87.5077)
(667.29 -24.9193 77.7453)
(689.074 -27.3322 71.6169)
(690.288 -43.5529 95.6904)
(683.178 -22.5726 80.6928)
(681.385 -14.6058 84.7652)
(634.11 -71.9842 121.575)
(577.269 -34.3476 172.955)
(584.6 -19.0317 173.72)
(578.227 -52.6431 188.409)
(215.013 133.081 440.269)
(396.532 23.5602 406.629)
(611.889 -83.9724 115.257)
(585.881 -73.6343 109.907)
(609.934 -98.3012 117.794)
(621.656 -76.823 127.474)
(601.35 -67.8648 113.714)
(616.815 -59.9603 121.805)
(624.274 -90.1553 142.434)
(205.466 72.5583 416.218)
(644.828 -82.7693 146.396)
(694.177 -59.1959 77.5863)
(685.329 -80.1758 48.0634)
(670.496 -54.1782 80.9277)
(673.955 -62.8555 63.9967)
(653.398 -2.70748 81.2655)
(658.63 -18.8556 76.9047)
(663.299 -34.7765 74.384)
(664.78 -47.1442 81.8461)
(204.965 -9.0377 493.567)
(126.551 39.4051 302.465)
(54.7306 -11.2826 644.366)
(15.8959 -33.8487 635.999)
(93.4225 28.7577 839.041)
(40.2236 -95.6795 851.479)
(8.7345 -108.606 859.086)
(-8.83707 -109.287 862.394)
(46.2029 -25.1255 638.403)
(1.32135 -72.5651 -75.4817)
(-13.3333 -29.2811 676.933)
(-10.6165 -50.7662 715.589)
(49.2097 -86.3156 844.277)
(49.965 -84.125 846.114)
(50.5838 -86.3621 846.721)
(260.506 -189.129 -902.808)
(-46.0746 -88.2138 830.808)
(-28.373 -94.0244 767.038)
(-61.9266 30.1632 805.47)
(-70.216 -12.7711 791.959)
(-19.1875 -99.78 767.895)
(-28.7572 59.5304 -92.6054)
(-273.81 -2.36781 -811.955)
(-338.857 -144.519 -904.334)
(-326.168 -148.735 -907.498)
(-322.668 -149.57 -900.759)
(-274.62 -168.149 -905.567)
(-255.557 -155.008 -889.382)
(-278.665 -157.257 -891.013)
(-312.537 -162.855 -905.54)
(-327.957 -155.128 -917.425)
(-328.069 -153.385 -912.449)
(-328.604 -154.717 -913.955)
(-342.855 -152.733 -919.379)
(-327.877 -153.939 -918.024)
(-320.548 -175.018 -919.812)
(-298.743 -176.654 -911.969)
(-298.53 -174.353 -909.891)
(-298.903 -176.09 -915.502)
(-313.073 -163.555 -918.98)
(-313.274 -164.252 -918.741)
(-312.426 -163.323 -919.106)
(-327.229 -151.571 -917.898)
(-327.025 -152.017 -918.02)
(-325.355 -146.781 -917.348)
(-314.4 -145.139 -919.872)
(-298.055 -174.657 -918.94)
(-279.9 -177.591 -919.059)
(-286.738 -187.535 -908.744)
(-280.53 -178.088 -918.826)
(-278.649 -178.765 -912.165)
(-260.589 -189.107 -902.795)
(-276.534 -194.091 -908.067)
(-279.864 -176.063 -919.257)
(-277.116 -195.865 -909.735)
(-297.562 -171.526 -920.34)
(-216.271 -78.9243 -896.466)
(-234.787 -32.594 -799.66)
(-215.482 -25.8661 -784.623)
(-245.109 -2.7901 -469.079)
(-195.143 42.9066 -442.395)
(-32.1332 78.6758 -90.9323)
(-88.5857 11.651 860.929)
(-41.3971 -94.0413 842.632)
(-51.8974 -82.8697 844.642)
(-46.5543 -90.054 848.709)
(-17.8266 -90.3139 845.75)
(-17.5733 -94.392 846.346)
(-19.9083 -90.3993 847.542)
(-12.2953 -99.3844 850.455)
(-21.3547 -90.2897 846.327)
(-27.9607 -94.584 839.648)
(-18.4898 -89.9889 845.3)
(-7.70063 -111.278 838.393)
(-17.7 -103.893 818.587)
(-14.062 -108.54 794.705)
(-13.077 -108.781 794.241)
(-14.4486 -116.288 797.473)
(-78.779 -17.4199 838.377)
(-82.2483 9.99978 825.447)
(-86.7442 4.71241 817.598)
(-75.5518 0.507275 833.059)
(-76.1846 0.339934 833.654)
(-80.6811 0.379071 855.889)
(-87.5708 7.11317 844.83)
(-79.8161 -1.56905 853.548)
(-78.903 -2.9361 849.804)
(-82.5067 2.49673 857.078)
(-78.2592 -3.22779 848.229)
(-77.5147 -2.55559 844.607)
(-79.9694 -4.13333 818.232)
(-679.619 -30.4863 6.1534)
(-677.766 -39.2919 -16.2364)
(-670.076 14.8758 93.297)
(-662.154 6.15984 82.8059)
(-683.431 -4.86683 90.2105)
(-674.966 -15.4324 80.8772)
(-636.666 21.1062 92.5457)
(-307.299 33.4729 504.698)
(-297.137 76.456 520.694)
(-621.174 16.2003 126.484)
(-604.822 23.6316 159.007)
(-370.372 21.8325 320.082)
(-614.747 25.6723 189.271)
(-585.807 22.1996 187.998)
(-47.9163 60.25 719.417)
(-28.2466 68.5714 729.03)
(-77.5061 31.2558 850.01)
(-73.7943 20.2912 816.762)
(-84.6123 27.0884 832.521)
(-85.1928 24.7119 850.142)
(-82.1218 10.1863 862.262)
(-31.5461 -29.4525 645.945)
(-72.8896 2.283 796.067)
(-87.1476 16.1005 810.013)
(-89.0696 9.55419 812.078)
(-92.2994 23.3567 826.849)
(-93.5587 12.6876 830.469)
(-214.114 124.795 529.522)
(-576.197 -1.74392 187.426)
(-680.78 -22.6825 78.5653)
(-665.678 -25.4401 78.52)
(-674.153 -50.0409 28.76)
(-687.809 -43.3645 84.7453)
(-673.162 -46.9976 78.2752)
(-681.037 -50.1757 84.5213)
(-681.654 -22.5913 79.3351)
(-582.708 -21.6893 178.159)
(-409.281 9.29695 364.734)
(-377.073 1.60729 356.133)
(-571.94 -36.5293 192.795)
(-575.773 -50.0171 198.256)
(-205.182 129.521 440.344)
(-600.499 -111.268 93.7381)
(-588.141 -77.2921 99.4384)
(-608.173 -102.802 105.898)
(-610.331 -81.9231 114.728)
(-594.541 -61.7139 115.274)
(-617.526 -94.1308 138.583)
(-619.153 -72.6103 124.483)
(-605.995 -62.278 119.192)
(-632.329 -72.7977 122.097)
(-638.744 -81.5028 140.093)
(-660.175 -76.1441 101.904)
(-626.634 -57.9205 121.297)
(-634.508 -86.1642 163.183)
(-690.892 -52.7175 92.8674)
(-692.057 -54.4067 92.4074)
(-667.063 -57.8352 80.7731)
(-604.285 -26.9082 144.026)
(-204.223 -11.4296 494.169)
(-647.226 10.0627 84.1068)
(-661.465 13.1675 83.0423)
(-655.208 -17.4672 80.1283)
(-664.736 -43.3457 75.9492)
(-646.114 -16.4303 88.1267)
(-143.575 34.7443 322.08)
(-189.508 -31.1679 557.112)
(-57.6997 -7.8582 645.526)
(-78.6197 -2.17538 817.11)
(-86.9806 7.7573 809.379)
(-49.7531 -90.7893 852.24)
(-40.1364 -95.7173 850.956)
(-41.3359 -94.8731 851.072)
(-77.9751 -3.15266 847.476)
(-86.9254 6.44761 844.276)
(201.229 38.8181 -923.576)
(200.678 59.798 -915.71)
(227.693 68.8816 -923.385)
(250.208 59.1153 -920.239)
(246.448 70.6041 -901.792)
(336.466 -154.61 -908.379)
(298.285 -175.088 -917.384)
(298.075 -173.061 -908.849)
(318.418 -173.245 -919.194)
(320.129 -174.518 -920.004)
(319.728 -173.962 -920.159)
(327.291 -152.663 -918.069)
(249.203 -190.765 -915.788)
(265.679 -193.39 -927.103)
(240.673 -155.272 -926.334)
(278.619 -178.75 -912.159)
(279.399 -179.325 -914.764)
(334.276 -101.023 -909.775)
(245.471 -101.647 -860.617)
(252.343 -163.382 -893.053)
(216.429 -77.4704 -897.296)
(218.903 -112.867 -914.06)
(330.525 -130.512 -919.952)
(228.432 -91.1385 -920.354)
(235.042 -49.0137 -919.736)
(310.624 -47.0976 -909.009)
(305.719 -51.1002 -918.577)
(268.883 -21.1948 -925.893)
(288.539 -55.3643 -925.404)
(280.142 -0.922155 -910.323)
(262.071 25.7779 -923.377)
(234.053 -8.38392 -928.339)
(227.203 17.9721 -930.836)
(256.554 57.7897 -875.011)
(250.796 -65.1286 -830.761)
(200.682 62.9415 -771.49)
(207.706 64.2133 -862.833)
(271.526 36.6669 -747.247)
(274.638 34.8722 -839.199)
(269.879 -17.2724 -814.096)
(272.381 15.7842 -725.964)
(231.565 70.3163 -750.945)
(220.648 67.1311 -838.611)
(206.922 -46.2469 -685.075)
(264.877 -17.5935 -671.937)
(170.425 16.9543 -702.992)
(184.544 37.6154 -764.656)
(246.835 -23.3334 -767.83)
(232.809 -53.0439 -656.431)
(250.695 -43.8619 -641.674)
(241.976 -74.5504 -531.663)
(218.749 -104.164 -485.864)
(222.075 -86.0229 -527.357)
(248.789 7.66874 -484.151)
(204.303 58.0065 -471.537)
(176.566 54.3239 -475.849)
(186.82 59.4557 -393.86)
(126.149 16.327 -409.886)
(141.788 8.98786 -473.247)
(123.296 -26.8132 -450.473)
(99.1685 -8.87621 -387.829)
(175.278 -113.02 -385.432)
(152.084 -127.214 -300.904)
(160.782 83.8476 -45.8891)
(187.927 87.4432 -207.107)
(164.134 87.2833 -138.117)
(125.237 103.133 -67.7593)
(47.1532 -137.875 -91.0098)
(0.196447 -77.2596 -76.8531)
(6.68682 -171.619 -43.9209)
(21.3726 -170.583 -36.0035)
(32.7812 -143.963 478.615)
(25.8426 -135.176 510.92)
(92.4129 23.5125 854.081)
(17.2271 -105.338 816.712)
(32.6374 -96.2344 841.931)
(38.3846 -64.9865 734.117)
(2.87385 -99.713 722.37)
(70.8196 -35.1435 797.21)
(77.2293 -6.23264 803.024)
(656.781 1.96783 40.4334)
(648.827 -1.87059 19.5467)
(654.186 -5.45165 53.5133)
(668.335 -16.5096 38.974)
(648.047 -14.9367 9.87697)
(660.292 -18.4346 41.5047)
(651.299 -12.6062 25.7746)
(656.848 -14.7726 52.7824)
(654.74 30.716 82.6024)
(655.067 24.0222 45.5315)
(642.024 27.96 19.3997)
(650.229 28.9331 49.1215)
(640.887 13.2504 64.7352)
(650.342 28.3692 132.376)
(443.791 13.19 265.752)
(524.724 -9.36167 226.275)
(619.458 -34.0394 225.499)
(589.119 -13.0117 258.996)
(340.787 100.826 360.662)
(323.194 102.676 474.801)
(297.772 119.443 415.527)
(293.27 121.627 452.312)
(601.136 34.3896 225.427)
(615.619 28.9634 156.099)
(41.3005 -100.854 868.627)
(53.1304 39.3295 748.184)
(48.8047 61.0105 718.441)
(39.7785 52.748 760.966)
(45.4211 49.4114 801.469)
(78.803 76.6811 699.598)
(85.7458 46.9472 693.847)
(156.056 23.9401 658.925)
(92.5421 26.4242 828.68)
(92.41 23.2604 824.662)
(160.159 83.1132 661.725)
(137.929 87.552 672.874)
(100.561 123.503 645.895)
(244.164 -31.6114 563.691)
(255.985 -25.9881 544.305)
(272.338 -9.32108 525.497)
(388.693 117.147 394.451)
(574.202 -21.4103 265.702)
(521.318 1.33331 319.329)
(635.156 31.6738 123.708)
(601.932 8.33964 143.127)
(328.476 89.3923 488.336)
(346.993 75.213 462.948)
(309.316 93.1649 375.339)
(592.756 16.5065 169.235)
(629.824 -34.9307 119.777)
(696.028 -63.2386 22.5263)
(667.284 -39.6287 13.2014)
(688.765 -32.1673 30.7757)
(687.63 -44.7022 61.7724)
(677.682 -25.7637 54.0161)
(672.354 -30.9874 10.9058)
(690.934 -42.5682 26.3777)
(686.517 -43.4104 3.23134)
(678.856 -69.3888 132.069)
(690.287 -73.4149 102.563)
(662.527 -75.4796 97.3363)
(317.017 52.4374 350.928)
(278.975 61.2646 372.09)
(576.859 -69.3368 149.172)
(595.157 -89.7135 64.2989)
(599.637 -110.457 96.9236)
(605.514 -84.5928 77.9749)
(610.071 -93.949 68.6422)
(609.577 -82.9398 99.8635)
(598.808 -113.999 73.7265)
(588.181 -108.506 100.537)
(586.312 -84.9361 84.2168)
(600.016 -97.5405 140.409)
(581.669 -95.3024 118.709)
(596.745 -78.4074 90.8484)
(588.424 -53.0003 122.606)
(577.762 -54.1261 140.212)
(568.885 20.1571 196.305)
(499.324 41.3968 232.382)
(442.668 13.7495 379.836)
(336.637 -9.47979 371.098)
(365.645 -3.17251 360.42)
(231.738 53.0926 407.36)
(544.394 -31.8926 224.831)
(570.306 -48.4047 209.352)
(680.718 -48.4394 136.805)
(692.251 -58.7265 112.028)
(694.947 -67.2643 96.2719)
(694.634 -80.751 28.3627)
(699.567 -65.643 40.6087)
(672.684 -78.9068 103.736)
(681.101 -63.89 25.7055)
(634.305 -70.9816 120.651)
(536.173 68.0111 274.51)
(596.178 36.8369 215.275)
(599.849 -58.8637 216.403)
(589.282 -40.4632 239.658)
(565.894 -43.8405 230.933)
(522.95 -24.6712 266.289)
(659.768 22.5106 70.402)
(639.875 29.3889 44.8178)
(637.393 21.2679 67.108)
(643.324 30.3093 88.0317)
(676.603 2.5295 69.1097)
(667.214 -9.60228 11.9129)
(675.547 -11.7826 50.0486)
(656.805 2.12779 4.80287)
(666.886 3.30674 37.4553)
(667.343 -1.45008 15.9461)
(679.672 -52.1001 19.8086)
(683.365 -32.7103 6.41872)
(685.101 -49.4459 9.68617)
(671.246 -49.5061 16.1289)
(691.265 -35.31 58.2439)
(633.126 26.477 105.801)
(636.055 21.7289 92.901)
(626.45 29.1645 161.252)
(389.412 121.964 377.662)
(136.447 66.9686 327.3)
(116.637 -1.981 645.005)
(192.325 -0.928483 622.141)
(45.4314 -21.4211 676.403)
(93.3111 28.5233 843.295)
(93.2945 27.3159 847.92)
(33.0264 -27.4466 667.588)
(23.7582 -49.1933 614.078)
(-0.964393 -74.6998 -76.0748)
(-3.60312 -38.2885 688.37)
(-9.53313 -43.7393 708.712)
(-12.2468 -76.6089 717.219)
(4.12813 -107.283 768.193)
(89.7927 14.1094 860.929)
(61.9399 16.3475 778.312)
(77.6205 -1.51994 834.942)
(91.5572 21.416 857.369)
(90.8321 19.616 858.151)
(7.57304 -130.552 819.112)
(13.9977 -108.38 794.838)
(49.9931 -86.9665 846.888)
(51.4326 -84.3259 845.427)
(-59.4162 26.5196 751.22)
(-20.6305 -98.8178 768.09)
(-70.1447 84.7566 121.237)
(-32.035 80.9634 134.075)
(-203.765 36.4017 -925.995)
(-197.918 54.1679 -912.933)
(-219.84 73.5463 -916.062)
(-320.133 -174.498 -919.997)
(-311.966 -163.9 -919.737)
(-263.338 -179.309 -925.203)
(-252.865 -163.823 -927.003)
(-280.191 -177.141 -919.1)
(-280.383 -177.729 -918.951)
(-276.844 -195.016 -908.802)
(-279.432 -179.421 -914.718)
(-297.792 -173.709 -919.438)
(-223.685 -136.543 -913.998)
(-330.027 -115.653 -899.514)
(-305.703 -73.5413 -878.954)
(-302.556 -34.3585 -898.97)
(-212.078 -50.2267 -900.713)
(-221.396 -90.924 -914.246)
(-288.251 -19.4263 -855.236)
(-317.744 -67.3886 -897.918)
(-299.024 -42.7127 -916.983)
(-276.398 -9.44411 -919.356)
(-241.48 -106.178 -865.835)
(-232.879 -47.2537 -820.276)
(-270.795 38.0886 -830.628)
(-277.29 19.0665 -866.193)
(-263.611 49.8495 -869.223)
(-219.395 72.6829 -889.79)
(-200.023 58.9814 -804.511)
(-187.117 18.6037 -831.004)
(-186.362 6.66242 -857.648)
(-243.501 -39.6446 -690.56)
(-257.076 -15.5849 -779.803)
(-206.576 -44.522 -690.783)
(-192.262 64.5502 -718.631)
(-187.508 50.7093 -749.685)
(-167.91 56.5907 -669.565)
(-270.967 49.3918 -672.902)
(-267.845 41.595 -769.646)
(-189.424 -56.8643 -632.183)
(-202.91 -75.7172 -575.378)
(-206.688 -95.0111 -507.576)
(-202.109 56.4033 -467.972)
(-239.696 3.05836 -409.209)
(-132.327 -5.2214 -499.399)
(-129.278 -6.3648 -451.563)
(-115.522 -23.0677 -425.717)
(-130.569 -29.0865 -489.687)
(-194.66 -113.205 -398.168)
(-211.138 -114.478 -425.308)
(-243.385 -73.1435 -433.306)
(-245.932 -53.8681 -384.888)
(-147.509 -147.507 -146.813)
(-150.077 -146.525 -192.817)
(-157.476 88.3373 -137.36)
(-145.246 96.7373 -54.9905)
(-82.2122 84.011 -109.864)
(-35.9593 47.6673 -113.633)
(-82.6991 10.5637 862.169)
(-20.666 -90.5932 846.923)
(-27.9355 -97.9662 821.036)
(-11.5661 -129.2 804.37)
(-13.6633 -98.1386 724.967)
(-27.1407 -87.2747 726.531)
(-77.8736 -1.45475 841.525)
(-672.758 -28.0384 39.8046)
(-668.976 3.03332 46.5426)
(-657.216 1.26178 60.1148)
(-653.007 -15.7089 27.8401)
(-661.437 -17.8368 23.1669)
(-662.972 -17.8351 58.1586)
(-677.118 -1.71942 55.2238)
(-645.529 27.0411 23.8789)
(-657.301 18.6191 59.4543)
(-647.214 19.9787 18.9299)
(-638.037 20.2711 65.0639)
(-513.95 -2.32641 231.406)
(-438.276 22.8134 261.599)
(-578.934 -52.2515 219.983)
(-540.791 -25.0752 271.027)
(-296.119 69.3425 537.76)
(-601.305 8.10547 143.271)
(-587.779 6.84114 167.108)
(-346.001 104.458 359.656)
(-321.844 91.1581 371.941)
(-343.685 115.609 418.635)
(-315.17 109.713 469.367)
(-341.066 115.634 396.475)
(-306.711 120.211 419.504)
(-559.8 54.228 259.733)
(-594.355 38.0439 219.285)
(-585.516 31.3656 201.081)
(-50.7051 -94.2999 872.865)
(-55.7243 -87.8137 860.435)
(-37.8223 57.6981 743.812)
(-112.365 79.5619 685.802)
(-55.5603 70.3934 712.465)
(-42.1299 -24.9329 695.126)
(-92.1623 22.0961 825.318)
(-377.275 104.408 410.653)
(-336.198 98.6241 452.77)
(-379.246 120.69 387.79)
(-528.014 -7.53315 306.425)
(-569.895 -30.1326 257.867)
(-617.494 24.5235 206.032)
(-645.238 25.1537 149.304)
(-632.891 30.4409 117.495)
(-631.462 21.5681 111.698)
(-302.129 19.9954 514.776)
(-218.046 135.639 500.803)
(-302.861 74.7389 366.401)
(-330.304 78.0887 351.368)
(-676.309 -69.1023 56.275)
(-679.028 -72.0212 30.3552)
(-683.751 -64.452 17.1472)
(-679.543 -57.5745 58.9248)
(-667.137 -39.3253 13.9105)
(-687.463 -27.3741 56.5156)
(-687.519 -45.5756 55.7935)
(-587.409 -11.3227 163.876)
(-558.406 -8.62458 201.459)
(-389.289 1.37725 378.649)
(-578.29 -67.1264 162.636)
(-185.55 132.921 434.149)
(-614.77 -100.765 79.8159)
(-612.542 -88.0971 96.5435)
(-589.451 -105.982 60.3096)
(-594.73 -111.24 75.7907)
(-594.274 -111.033 76.4691)
(-610.32 -91.8992 72.3052)
(-584.874 -102.266 82.8335)
(-600.945 -99.3232 135.898)
(-601.537 -81.0951 84.7399)
(-583.418 -92.3011 82.1016)
(-577.081 -74.9119 131.995)
(-659.894 -80.1899 122.478)
(-545.701 -31.1294 219.853)
(-693.724 -66.1623 104.515)
(-686.293 -68.9639 120.203)
(-682.119 -12.2279 111.142)
(-696.234 -61.8063 43.2502)
(-689.706 -59.2654 42.6102)
(-676.498 -75.5555 65.4812)
(-681.197 -78.1992 75.3211)
(-699.462 -68.7064 46.8867)
(-697.836 -78.3223 15.7987)
(-680.808 -75.3067 8.35793)
(-697.944 -68.2002 12.6592)
(-692.469 -80.0467 42.8899)
(-602.54 -5.45743 142.859)
(-404.97 5.93325 323.936)
(-342.307 -0.074224 358.526)
(-602.63 -53.4764 222.713)
(-622.151 -68.3493 195.889)
(-220.407 -11.1402 478.586)
(-646.951 11.7965 41.0457)
(-642.372 28.9323 63.4667)
(-633.128 16.9577 33.9675)
(-634.151 24.2373 41.1242)
(-655.152 30.514 83.2579)
(-662.008 28.2123 103.907)
(-665.099 -13.4815 10.5114)
(-665.313 -3.35397 9.49318)
(-656.78 -11.6208 62.6215)
(-650.675 -7.08686 31.2352)
(-683.988 -49.294 -1.0183)
(-689.866 -45.0018 32.5646)
(-687.778 -38.901 7.82545)
(-690.342 -33.768 35.7232)
(-679.659 -31.3963 1.63057)
(-402.931 117.655 361.305)
(-240.028 -14.7145 497.43)
(-212.925 -12.2492 501.307)
(-189.845 -32.1848 554.924)
(-135.57 17.4298 266.479)
(-48.3247 -18.9466 676.962)
(-77.2247 -0.735895 834.462)
(-77.4127 -4.20406 799.946)
(-40.7544 -95.394 850.962)
(-34.6324 -104.42 865.938)
(-10.7212 -136.923 -82.4156)
(-3.58454 -107.493 768.165)
(-11.3554 -105.218 768.699)
(-91.8431 13.8684 847.458)
(-78.6657 -2.94481 849.207)
(-681.105 1.52035 101.623)
(-51.0147 -85.7036 846.196)
(-595.704 -89.8927 157.349)
(-679.444 -77.062 112.878)
(32.0631 -93.2435 765.383)
(212.78 70.3972 -915.605)
(227.111 75.8766 -908.787)
(226.717 -122.522 -923.853)
(299.032 -43.5662 -872.679)
(255.367 -71.603 -927.108)
(187.351 3.7204 -859.546)
(187.965 15.0777 -808.084)
(178.788 -0.601905 -712.743)
(188.251 70.9448 -684.342)
(107.568 85.2169 -114.421)
(368.198 63.672 310.823)
(564.609 51.018 263.868)
(492.727 -5.73665 334.809)
(541.657 -22.5216 277.196)
(686.549 -58.3176 49.495)
(676.252 -74.2445 61.9254)
(680.833 -78.0697 22.5777)
(697.67 -70.729 8.08876)
(624.504 -73.6218 187.961)
(5.58692 86.9658 328.786)
(32.7834 73.0003 258.428)
(416.268 114.137 362.4)
(667.958 16.4232 117.145)
(683.203 -10.0523 107.104)
(680.675 -5.14004 71.805)
(211.101 -2.18052 470.111)
(-275.06 -168.256 -905.512)
(-284.462 -156.758 -921.195)
(-321.45 -124.045 -924.417)
(-217.582 -113.119 -905.866)
(-212.807 -46.0351 -859.527)
(-223.861 -107.571 -885.559)
(-262.306 23.4128 -923.641)
(-199.557 -11.6188 -899.151)
(-182.193 26.5309 -756.734)
(-232.457 -28.1041 -769.378)
(-237.042 80.2814 -546.723)
(-228.239 76.6912 -520.293)
(-131.036 -13.2261 -558.767)
(-213.254 -106.298 -394.525)
(-210.729 -98.6021 -354.874)
(-185.923 85.8902 -192.211)
(-172.227 76.1276 -59.0598)
(-1.68118 -123.953 829.461)
(-617.674 29.0506 162.191)
(-31.4796 83.5833 716.024)
(-691.551 -35.6234 71.6928)
(-669.99 -32.9239 54.7769)
(-587.895 -29.3423 149.204)
(-582.056 -97.1366 115.229)
(-588.012 -46.516 127.175)
(-576.964 -52.506 148.011)
(-560.115 19.4045 200.884)
(-263.187 -9.66031 424.444)
(-50.7244 -86.0283 846.323)
(4.00698 -118.26 796.952)
(21.0048 -98.527 768.159)
(23.2166 -96.4884 767.361)
(23.7042 -95.7891 767.38)
(22.3599 -97.3176 767.754)
(313.222 -164.16 -918.747)
(326.7 -149.13 -917.484)
(224.092 19.0647 -449.464)
(152.974 22.7634 -448.063)
(237.943 -73.4286 -401.178)
(213.814 -97.0825 -365.147)
(147.338 87.0343 -98.8905)
(36.1804 55.2709 -104.998)
(153.94 -79.4368 136.86)
(120.263 -123.203 115.835)
(14.1412 14.2648 -79.248)
(160.224 -5.72834 137.839)
(128.428 37.3488 164.039)
(134.101 -96.7345 444.783)
(86.3928 -132.11 444.356)
(37.7748 -146.427 454.084)
(1.88654 97.1032 -75.1809)
(-1.25451 118.548 -47.5587)
(8.09919 -34.3946 -68.9002)
(91.5716 21.6997 857.083)
(29.1587 -94.8607 827.984)
(20.4036 -102.788 858.761)
(21.4246 -90.1565 845.923)
(77.6376 0.147213 839.906)
(88.0589 11.6374 834.769)
(25.6345 -38.6097 719.61)
(296.341 73.2836 526.012)
(264.02 105.082 533.806)
(56.3473 -11.9521 745.199)
(237.416 122.908 527.006)
(304.748 64.4679 362.926)
(382.871 6.30669 342.134)
(568.421 -36.3356 198.283)
(596.487 -68.5137 191.955)
(196.38 137.37 500.018)
(199.997 125.656 435.016)
(207.614 51.8563 426.27)
(404.013 57.8233 418.879)
(476.282 -3.3313 278.924)
(671.089 -19.6077 81.824)
(270.604 -4.0276 507.258)
(206.206 27.9594 445.202)
(12.7046 75.0103 292.773)
(147.413 35.7617 332.821)
(162.85 13.997 368.893)
(103.802 53.9661 304.468)
(175.664 -24.926 579.102)
(143.537 -19.6437 606.658)
(159.812 -1.79592 623.074)
(63.237 22.4065 684.33)
(56.2328 -2.4373 651.837)
(53.4225 -27.3029 746.487)
(78.5872 -1.87956 818.907)
(5.51758 -86.3926 560.883)
(3.31367 -112.304 531.815)
(16.692 -26.7194 663.13)
(14.5037 -107.935 794.693)
(77.8064 -1.53153 841.409)
(77.8453 -1.30101 840.95)
(77.821 -0.284633 839.986)
(-5.23954 -106.402 767.988)
(-23.8764 -96.0078 767.016)
(-23.567 -96.5323 767.892)
(-30.9579 -43.6464 726.849)
(-3.98649 -55.2089 -70.7569)