/*--------------------------------*- C++ -*----------------------------------*\
  =========                 |
  \\      /  F ield         | OpenFOAM: The Open Source CFD Toolbox
   \\    /   O peration     | Website:  https://openfoam.org
    \\  /    A nd           | Version:  dev
     \\/     M anipulation  |
\*---------------------------------------------------------------------------*/
FoamFile
{
    format      ascii;
    class       featureEdgeMesh;
    location    "constant/triSurface";
    object      HumanHQ0deg.eMesh;
}
// * * * * * * * * * * * * * * * * * * * * * * * * * * * * * * * * * * * * * //


// points:

905
(
(4.16367 -9.35286 79.3132)
(20.4433 6.02467 -92.0218)
(21.9945 7.31369 -91.2196)
(23.3622 7.03789 -92.0278)
(25.6016 5.45138 -91.5457)
(32.7844 -15.3949 -91.7991)
(34.3252 -14.6009 -91.4735)
(32.0555 -17.5044 -91.9817)
(31.0827 -18.3278 -91.5373)
(29.3971 -18.9647 -91.9179)
(28.5364 -18.8484 -90.9366)
(26.5777 -20.3158 -91.2522)
(26.0211 -19.3307 -92.5867)
(22.0153 -12.6842 -90.5197)
(32.7623 -7.89133 -91.525)
(27.3439 2.97623 -87.6814)
(2.36534 9.65643 -8.30578)
(0.416638 -14.345 -8.23638)
(4.13194 -9.49291 85.0715)
(3.98564 -9.48225 84.2329)
(3.12003 -9.6235 84.2096)
(3.68687 -9.56233 84.2185)
(1.08595 -12.6685 81.4632)
(-0.451774 -9.74436 72.1926)
(1.76564 -8.63794 72.0492)
(8.08255 0.0721293 85.6062)
(8.00396 -0.102247 85.4343)
(65.2615 -1.54064 -0.373204)
(65.2485 2.98246 6.5862)
(63.4675 2.3102 0.570149)
(63.6131 2.73844 3.71781)
(58.8335 -0.509597 16.1261)
(62.6314 2.4922 11.8704)
(66.8332 -3.65932 3.00482)
(67.5018 -2.83756 3.2461)
(68.3651 -4.84011 4.07905)
(60.352 -7.79889 18.0352)
(59.9099 -11.3477 5.58977)
(60.5465 -9.78796 6.22514)
(60.8723 -11.1503 6.32588)
(59.067 -10.4241 5.73816)
(59.5157 -8.97135 6.42989)
(59.9223 -11.2228 8.53251)
(61.4247 -9.90566 8.5041)
(60.113 -8.15001 8.44116)
(58.6312 -8.49361 8.42167)
(60.9934 -9.83012 11.7794)
(59.5849 -9.36311 14.7511)
(41.6372 4.92063 41.0331)
(69.2617 -7.03396 9.94176)
(68.4519 -7.21318 0.130733)
(68.8341 -8.26591 0.488417)
(63.0178 1.7037 1.61102)
(63.9705 1.62595 0.854152)
(66.7214 -0.960229 1.19129)
(65.4334 -0.765755 -1.00499)
(64.7588 -0.2798 0.00155182)
(68.6914 -4.62176 1.22454)
(68.3365 -3.27103 0.641872)
(67.9591 -4.64911 -1.63296)
(66.8379 -4.43176 -0.741808)
(67.9038 -4.56174 -1.72139)
(1.45691 -10.5697 85.8923)
(1.32492 -10.9344 77.2503)
(0.248231 -13.6979 80.429)
(25.5773 -19.0324 -90.4515)
(-1.18808 -14.4308 -7.89339)
(-27.1928 4.03217 -84.1796)
(-20.2244 5.77153 -91.8011)
(-20.3624 6.17162 -86.5911)
(-22.2916 7.1163 -92.0118)
(-24.0243 7.2051 -91.5962)
(-31.0286 -18.3322 -91.9285)
(-32.7752 -15.3681 -91.8079)
(-34.2855 -15.2733 -91.9379)
(-31.1899 -16.6235 -92.075)
(-29.421 -19.0245 -91.796)
(-25.9643 -19.9019 -92.2753)
(-24.7779 -18.49 -91.934)
(-26.2475 -20.2493 -91.165)
(-29.7792 -17.3709 -91.9438)
(-19.0919 -11.337 -45.0065)
(-3.93442 -9.49684 84.2366)
(-4.13971 -9.40413 84.2632)
(-2.71407 -8.72747 72.6531)
(-67.134 -4.0242 -1.2922)
(-67.6978 -4.9592 -1.52073)
(-65.4739 -1.40525 -0.753233)
(-64.7518 -1.34976 0.0707535)
(-64.4434 1.6977 1.73533)
(-63.2026 2.47027 1.17467)
(-63.8452 2.44876 0.541158)
(-5.12564 -8.22732 89.9626)
(-4.52273 -2.19397 68.6044)
(-9.92569 4.65708 68.8366)
(-9.30369 2.55043 85.1407)
(-23.8574 -3.11363 57.5695)
(-69.5698 -6.70338 0.887196)
(-69.2057 -5.44067 9.24074)
(-68.3751 -6.4452 1.71472)
(-61.273 -10.5601 7.22156)
(-61.032 -9.18992 7.23052)
(-60.2127 -10.9299 5.68046)
(-59.1568 -10.2208 5.63433)
(-58.9451 -10.5982 6.03096)
(-60.6461 -10.7715 9.45563)
(-59.6424 -8.9206 6.52797)
(-61.7526 -9.41308 13.8583)
(-69.9462 -6.87064 4.68867)
(-69.7836 -7.83223 1.57987)
(-69.5372 -7.47246 -0.288499)
(-69.0983 -8.22843 0.239052)
(-68.3705 -7.50064 0.370668)
(-58.8012 -4.6516 12.7175)
(-66.2008 2.82123 10.3907)
(-64.1887 1.16317 5.14136)
(-63.1202 1.73847 2.61933)
(-63.5641 1.69472 0.657045)
(-64.6561 -0.391565 0.269264)
(-65.2956 -0.38362 -1.04855)
(-67.9659 -3.13963 0.163057)
(-68.3065 -5.02461 -0.281511)
(-66.7457 -4.35149 0.583998)
(-5.27387 -8.93015 85.6338)
(-4.95675 -8.73958 84.7029)
(-3.95742 -9.6154 85.156)
(69.3359 -7.53808 -0.343132)
(7.3235 0.342678 82.1265)
(2.41869 -9.5198 76.7005)
(32.6354 -14.9095 -90.7985)
(8.63928 -13.211 44.4356)
(9.32317 2.6409 84.9696)
(1.87198 -9.02146 84.6428)
(1.97374 -9.03827 84.7737)
(7.78508 -0.194822 84.2438)
(9.3198 2.82374 83.3967)
(9.3064 2.79587 83.2028)
(68.3178 -2.25726 8.06928)
(20.691 3.99079 43.5736)
(9.66993 6.22561 31.0211)
(13.6982 3.75834 31.7643)
(7.7908 -0.0997951 84.0552)
(4.88809 -8.43101 84.6442)
(5.07852 -8.33793 84.5167)
(-0.662683 -11.9776 79.957)
(-3.09579 -4.36464 72.6849)
(-1.16813 0.313837 -7.76759)
(-31.2918 -16.3931 -91.5373)
(-31.3661 -16.5636 -91.3896)
(-32.5633 -14.7092 -91.7272)
(-27.5238 -16.8568 -90.6323)
(-17.3704 4.01871 -44.6592)
(-4.07202 6.51179 -9.88857)
(-1.90405 -9.04471 84.6794)
(-1.84898 -8.99889 84.53)
(-7.89845 0.859863 82.3758)
(-8.04169 0.0256737 85.5636)
(-7.95093 -0.238283 85.199)
(-7.75147 -0.255559 84.4607)
(-63.1929 -8.29562 13.8019)
(-4.84233 -8.43763 84.6555)
(1.49607 -10.788 79.4977)
(3.46942 -9.53757 82.0388)
(-0.0966245 -13.1542 79.5753)
(-1.3077 -10.8781 79.4241)
(7.92128 -0.075394 81.7162)
(7.69889 -0.0714426 83.4022)
(3.13788 -9.3294 76.5507)
(2.22982 -9.75807 76.7169)
(0.908048 -10.5696 76.8766)
(1.40703 -10.8811 77.2634)
(2.46552 -9.49578 76.7485)
(2.84666 -9.40703 76.7004)
(2.38418 -9.60732 76.7773)
(1.97354 -9.93067 76.7989)
(19.3963 4.19407 -85.6423)
(19.8437 -1.46778 -88.6026)
(33.6533 -14.2366 -90.2576)
(31.2883 -16.3566 -90.612)
(32.7092 -14.8872 -91.7627)
(32.8578 -15.4589 -91.377)
(32.8084 -15.3487 -91.259)
(31.8791 -17.3849 -91.9063)
(32.7514 -15.4012 -91.8104)
(29.9068 -17.6665 -91.4714)
(29.8817 -17.7091 -91.2759)
(31.4181 -16.6669 -91.3631)
(31.2731 -16.4205 -91.8419)
(31.9363 -17.3447 -92.0245)
(32.6389 -14.9488 -91.7502)
(31.2396 -16.3352 -91.9085)
(29.7607 -17.1775 -92.0322)
(27.9388 -17.93 -91.3358)
(27.9805 -17.7286 -91.9123)
(27.5994 -19.2708 -90.7157)
(27.4612 -16.8156 -90.5541)
(28.6094 -19.0084 -91.082)
(27.6847 -19.5046 -90.8827)
(25.519 -19.0378 -90.4939)
(26.4488 -20.3184 -91.2523)
(24.3978 -17.5278 -90.9802)
(28.0047 -17.675 -91.9152)
(25.9604 -18.924 -90.296)
(27.4388 -11.8022 -87.0902)
(21.736 -7.07208 -90.0976)
(24.5204 -6.03084 -92.3422)
(27.0391 -0.625084 -92.4513)
(23.0734 -4.32917 -81.7289)
(27.3502 -0.905941 -82.0238)
(25.1685 -3.00836 -80.2445)
(21.2593 -2.47474 -79.9266)
(23.7319 -2.64105 -76.7782)
(26.3764 -0.820512 -77.4278)
(17.5065 3.96568 -44.5604)
(14.7381 1.58756 -46.0655)
(20.8632 3.44008 -44.1383)
(3.17662 4.38635 -10.5538)
(6.15515 8.4263 -9.80782)
(2.8321 6.85889 -9.08974)
(2.3418 -12.1121 -8.22118)
(2.61718 -14.5992 -7.053)
(0.0419294 -7.75155 -7.69222)
(9.10489 2.0497 85.7814)
(2.0596 -9.02067 84.5926)
(2.10213 -9.01054 84.8148)
(1.76639 -9.44047 84.6548)
(3.93367 -9.57842 85.1088)
(4.71951 -8.93058 84.8471)
(4.84467 -8.75988 84.4053)
(3.85872 -9.52874 84.2122)
(3.93229 -9.49871 84.235)
(-0.246284 -11.1042 85.2704)
(1.39977 -10.838 79.4838)
(1.45037 -10.7935 79.4693)
(5.22027 -8.28903 84.4922)
(3.20631 -9.32435 76.5383)
(7.85872 -0.187956 81.8907)
(8.20152 -0.256892 85.9185)
(8.2488 1.45997 86.2034)
(7.75255 0.0789601 83.9951)
(7.79198 -0.0220109 83.9839)
(9.12963 1.27287 83.5729)
(7.79616 -0.319493 84.7467)
(7.77652 -0.053586 84.0393)
(7.98421 -0.150178 85.3567)
(8.64745 1.14339 86.0266)
(8.55048 1.0407 86.0156)
(7.7958 -0.32408 84.7421)
(7.4198 -0.560642 79.9238)
(5.48849 -1.96275 74.5843)
(1.62827 -5.21851 71.8785)
(0.507047 -3.74299 69.063)
(2.80309 -3.48216 71.4429)
(65.9353 0.851142 8.37178)
(67.6603 0.25295 6.91097)
(66.535 2.2288 10.8758)
(66.6156 1.46591 8.88569)
(63.8833 1.29367 5.09042)
(63.8541 2.36435 7.87872)
(64.7602 0.243467 8.41601)
(52.4724 -0.936167 22.6275)
(41.2886 0.879727 35.8146)
(60.1653 2.68016 18.577)
(4.02236 -9.56795 85.1479)
(6.41349 2.36241 79.7564)
(1.08265 -2.60721 65.2068)
(2.44612 -3.06477 65.1794)
(5.31462 5.24932 71.4413)
(4.64544 4.60387 75.4575)
(4.01759 5.34833 80.2253)
(7.7666 3.3155 85.1842)
(2.92824 7.17412 72.6775)
(7.8803 7.66811 69.9598)
(6.3237 2.24065 68.433)
(8.02919 0.954053 80.191)
(9.241 2.32604 82.4662)
(9.26256 2.69216 82.9443)
(9.35057 2.82885 83.5603)
(8.97539 2.81554 84.755)
(9.37245 2.28217 85.7601)
(-0.392039 7.35543 72.5379)
(29.8125 1.49244 50.5633)
(20.0114 13.1929 44.4534)
(31.0882 5.84527 35.6927)
(57.6429 0.508656 18.8523)
(59.2943 -2.24608 16.068)
(62.9824 -3.49307 11.9777)
(60.6952 -4.12434 12.7549)
(63.4305 -7.09816 12.0651)
(65.3393 -4.67481 8.87778)
(66.391 -2.05596 7.83446)
(69.0288 -4.35529 9.56904)
(67.5336 -4.96471 8.28599)
(68.8919 -2.97498 5.11963)
(68.103 -0.987291 7.82851)
(57.7269 -3.43476 17.2955)
(20.5446 10.3627 41.7509)
(58.7153 -6.33173 11.6256)
(61.1503 -7.23439 12.0594)
(62.4408 -9.08371 14.9312)
(63.411 -7.19842 12.1575)
(66.7605 -7.71932 10.0536)
(20.0223 6.12497 41.0772)
(22.6494 6.99947 40.7309)
(65.1814 -7.9823 15.1395)
(69.4177 -5.91959 7.75863)
(68.9981 -8.04634 3.82131)
(67.5103 -6.855 6.29611)
(68.7993 -6.11968 2.9267)
(20.8033 -0.560911 48.1839)
(66.3299 -3.47765 7.43841)
(25.4149 -1.2042 51.7211)
(20.1776 -2.38606 53.6937)
(17.072 -3.19322 57.8232)
(5.08423 -1.59927 64.3252)
(8.67189 0.548936 81.4331)
(9.34225 2.87577 83.9041)
(0.854695 -3.8551 -6.91405)
(0.132135 -7.25651 -7.54817)
(-1.00748 -4.72528 71.2151)
(9.01922 1.41669 86.1395)
(-0.469091 -11.7616 83.3927)
(4.92097 -8.63156 84.4277)
(4.9965 -8.4125 84.6114)
(5.05838 -8.63621 84.6721)
(26.0506 -18.9129 -90.2808)
(-5.18974 -8.28697 84.4642)
(-2.8373 -9.40244 76.7038)
(-7.15528 -0.524404 79.4013)
(-1.91875 -9.978 76.7895)
(-0.523954 -10.6402 76.7988)
(-1.68439 -16.1649 -5.99067)
(-2.55013 -12.6052 -7.88079)
(-27.4548 -1.83522 -82.2128)
(-34.1137 -14.8566 -90.8472)
(-32.8605 -15.4717 -91.3955)
(-32.6168 -14.8735 -90.7498)
(-27.462 -16.8149 -90.5567)
(-26.0589 -18.9107 -90.2795)
(-28.2701 -17.2396 -89.9879)
(-31.2537 -16.2855 -90.554)
(-32.7957 -15.5128 -91.7425)
(-32.7877 -15.3939 -91.8024)
(-32.0548 -17.5018 -91.9812)
(-29.8743 -17.6654 -91.1969)
(-29.853 -17.4353 -90.9891)
(-29.8903 -17.609 -91.5502)
(-31.3073 -16.3555 -91.898)
(-31.3274 -16.4252 -91.8741)
(-31.2426 -16.3323 -91.9106)
(-32.7229 -15.1571 -91.7898)
(-32.7025 -15.2017 -91.802)
(-32.5355 -14.6781 -91.7348)
(-31.1966 -16.39 -91.9737)
(-29.8055 -17.4657 -91.894)
(-27.99 -17.7591 -91.9059)
(-28.053 -17.8088 -91.8826)
(-27.8649 -17.8765 -91.2165)
(-27.5473 -19.1058 -90.6159)
(-27.6534 -19.4091 -90.8067)
(-27.506 -16.8256 -90.5512)
(-27.9864 -17.6063 -91.9257)
(-25.8102 -17.1566 -92.6103)
(-27.2851 -19.9763 -91.5832)
(-27.7116 -19.5865 -90.9735)
(-29.7562 -17.1526 -92.034)
(-25.877 -18.9296 -90.2956)
(-33.8538 -11.8344 -91.1686)
(-23.3833 -3.99238 -80.9968)
(-25.3282 -2.10372 -78.7608)
(-22.3969 -2.69851 -77.7)
(-24.5109 -0.27901 -46.9079)
(-19.5143 4.29066 -44.2395)
(-13.8267 0.418683 -45.8686)
(-3.21332 7.86758 -9.09323)
(-4.50204 -14.8287 -6.92678)
(-4.65543 -9.0054 84.8709)
(-1.90181 -9.01334 84.5112)
(-1.75733 -9.4392 84.6346)
(-1.99083 -9.03993 84.7542)
(-2.13547 -9.02897 84.6327)
(-1.4062 -10.854 79.4705)
(-1.74542 -9.02474 84.5216)
(-1.30074 -12.2744 80.0922)
(-8.03413 -1.03582 84.1556)
(-7.61846 0.0339934 83.3654)
(-7.78226 -0.122944 84.1034)
(-7.55518 0.0507275 83.3059)
(-7.98161 -0.156905 85.3548)
(-8.06811 0.0379071 85.5889)
(-7.8903 -0.29361 84.9804)
(-8.25067 0.249673 85.7078)
(-7.82592 -0.322779 84.8229)
(-7.78736 -0.145475 84.1525)
(-7.92945 -0.315435 81.7671)
(-67.9619 -3.04863 0.61534)
(-67.7766 -3.92919 -1.62364)
(-67.559 0.819807 9.74599)
(-66.1809 0.966367 8.29241)
(-66.2204 -1.78359 4.06627)
(-68.1654 -2.25913 7.93351)
(-20.243 12.3009 42.9165)
(-29.6628 7.28992 52.9227)
(-56.6389 4.01233 21.5561)
(-62.6318 1.88842 11.9091)
(-4.26687 -9.93598 86.9402)
(-5.813 -1.20141 74.3392)
(-6.27777 3.26592 69.6118)
(-5.17383 6.53217 71.5941)
(-4.09985 5.2344 75.7805)
(-2.98631 7.60773 72.2527)
(-8.13494 2.79838 85.0076)
(-1.86234 5.80511 78.6207)
(-7.81616 2.12528 82.0467)
(-9.22994 2.33567 82.6849)
(-8.21218 1.01863 86.2262)
(-8.90696 0.955419 81.2078)
(-61.334 -2.80748 13.5685)
(-68.078 -2.26825 7.85653)
(-66.9765 -4.3221 5.87103)
(-67.4153 -5.00409 2.876)
(-69.0892 -5.27175 9.28675)
(-68.6135 -1.91312 10.0403)
(-40.3253 0.952205 37.6526)
(-57.0365 -3.14077 19.4112)
(-58.5058 -1.6506 17.1017)
(-57.5773 -5.00171 19.8256)
(-60.4592 -7.40484 18.6928)
(-61.1437 -8.50101 10.5636)
(-59.473 -11.124 7.57907)
(-58.4146 -9.72833 8.24675)
(-58.8141 -7.72921 9.94384)
(-60.0268 -6.1996 11.7233)
(-62.5741 -7.2704 12.329)
(-66.0035 -7.8167 11.2191)
(-62.6634 -5.79205 12.1297)
(-20.8109 7.68113 41.7328)
(-64.3453 -8.03642 16.3969)
(-67.71 -4.85867 8.13982)
(-66.7063 -5.78352 8.07731)
(-20.8574 -1.18394 49.7738)
(-63.9519 2.50192 7.80062)
(-64.7226 1.00627 8.41068)
(-65.0661 -1.69487 8.41275)
(-66.4736 -4.33457 7.59492)
(-18.9845 -3.21848 55.4924)
(-5.76997 -0.78582 64.5526)
(-8.26991 1.05637 86.2169)
(-4.01364 -9.57173 85.0956)
(-4.13359 -9.48731 85.1072)
(-7.79751 -0.315266 84.7476)
(19.4001 3.96802 -90.8326)
(20.1229 3.88181 -92.3576)
(18.7351 0.37204 -85.9546)
(21.1382 -0.503081 -92.0317)
(24.6448 7.06041 -90.1792)
(29.8285 -17.5088 -91.7384)
(29.8075 -17.3061 -90.8849)
(29.5564 -16.9117 -90.5444)
(31.8418 -17.3245 -91.9194)
(32.0129 -17.4518 -92.0004)
(31.9728 -17.3962 -92.0159)
(32.7291 -15.2663 -91.8069)
(27.9694 -17.5676 -91.9289)
(27.8619 -17.875 -91.2159)
(27.9399 -17.9325 -91.4764)
(24.4705 -9.04841 -85.2367)
(22.281 -11.7695 -91.8956)
(22.9216 -14.4709 -91.893)
(30.4912 -10.665 -88.3414)
(22.8432 -9.11385 -92.0354)
(22.1159 -8.18116 -87.5388)
(30.6121 -4.0426 -90.253)
(20.0129 0.292109 -90.9814)
(29.5261 -4.63448 -86.5379)
(26.2809 5.22126 -86.3787)
(27.1207 -6.0934 -83.8357)
(27.4638 3.48722 -83.9199)
(20.0681 6.29415 -77.1489)
(20.7706 6.42133 -86.2833)
(17.7484 2.72849 -73.3824)
(19.8016 -2.04283 -74.4496)
(20.3669 -1.8308 -83.8728)
(27.1656 3.66953 -71.8561)
(26.8629 -0.0904657 -69.8951)
(23.1565 7.03163 -75.0945)
(22.5766 6.91792 -85.9852)
(20.6922 -4.62469 -68.5075)
(26.8363 5.42075 -67.1042)
(26.2049 4.63898 -82.1523)
(25.0695 -4.38619 -64.1674)
(27.2859 4.96395 -59.3976)
(24.1976 -7.45504 -53.1663)
(24.9815 6.85913 -53.87)
(22.5416 6.04722 -49.001)
(21.1179 -10.9216 -47.0962)
(22.2075 -8.60229 -52.7357)
(17.6566 5.43239 -47.5849)
(23.1094 -10.2704 -45.8214)
(21.0607 -11.4605 -43.8946)
(24.3984 -1.13607 -43.8769)
(24.0569 1.37069 -47.5108)
(12.8801 6.05469 -35.2612)
(23.9525 -7.80939 -33.8073)
(23.7943 -7.34286 -40.1178)
(7.39363 -2.05756 -33.8414)
(11.1232 -1.78447 -41.9151)
(18.682 5.94557 -39.386)
(18.5015 9.27901 -30.2707)
(14.3606 -13.0727 -27.9749)
(14.3431 -14.6436 -18.8982)
(16.0782 8.38476 -4.58891)
(17.9637 9.21605 -21.0843)
(13.3222 -12.0934 10.0033)
(12.0737 -13.8641 7.57756)
(12.6398 3.73986 17.8389)
(13.7205 4.65201 13.8026)
(5.05036 -11.9024 -12.8848)
(1.61225 9.80123 10.4907)
(5.77477 7.08652 17.0894)
(0.0196447 -7.72596 -7.68531)
(9.24129 2.35125 85.4081)
(1.34517 -10.8461 79.4592)
(3.26374 -9.62344 84.1931)
(3.83846 -6.49865 73.4117)
(6.88052 -2.60263 78.4143)
(66.4594 0.0633593 1.85376)
(65.4983 -1.6103 2.96652)
(65.7417 2.32664 5.79668)
(64.5957 1.23041 3.50667)
(64.9195 2.02396 2.40517)
(64.2024 2.796 1.93997)
(63.8396 2.87669 14.6814)
(44.3791 1.319 26.5752)
(32.8476 8.93923 48.8336)
(30.2625 10.0803 50.6493)
(28.3501 12.4435 46.2547)
(34.6602 11.6813 41.577)
(28.5075 12.3461 41.5164)
(33.984 11.4237 39.0416)
(62.5387 3.03186 13.9903)
(60.1932 0.833964 14.3127)
(6.05167 1.1728 71.8831)
(4.90747 -1.62903 68.0499)
(9.28246 10.7423 67.1735)
(9.3193 11.0059 66.8909)
(9.25421 2.64242 82.868)
(16.8629 2.10868 65.4155)
(23.2753 2.60076 62.8914)
(11.1308 4.41107 68.2272)
(27.6437 2.80311 59.5238)
(26.3992 5.22072 61.0934)
(24.9318 7.50432 61.8194)
(36.1304 7.26103 32.1448)
(39.5488 6.40427 28.61)
(58.1742 -3.09368 25.268)
(50.6867 0.512707 33.5417)
(59.8657 3.56133 22.0351)
(63.0054 1.93609 18.575)
(39.3959 3.55039 28.6673)
(34.6103 4.18611 33.1528)
(35.2608 7.74672 45.2062)
(27.2225 9.88315 38.3047)
(37.4258 0.156709 35.1277)
(44.7812 0.464986 28.3533)
(56.4785 4.0253 21.704)
(59.2756 1.65065 16.9235)
(58.8271 -3.24289 14.4503)
(37.8897 -0.318877 39.1883)
(57.731 -6.17314 14.4692)
(22.6631 12.0151 41.3448)
(30.3055 -0.477938 38.0455)
(26.2671 -0.19577 41.1971)
(47.5257 7.69456 26.3736)
(47.7771 2.00987 24.051)
(55.6519 -1.32408 20.2781)
(55.735 -4.01487 21.7091)
(58.1398 -6.18224 17.9309)
(58.5789 -10.202 7.78118)
(58.4925 -10.1904 10.9623)
(61.0733 -8.34561 10.756)
(46.2866 2.48526 38.0359)
(38.8721 1.66608 41.0015)
(46.8545 -0.116486 34.7298)
(55.3775 -3.31811 25.4065)
(68.6485 -5.35829 12.4417)
(69.7777 -7.84202 1.16691)
(69.6765 -7.32885 5.61933)
(68.0833 -7.80697 2.25777)
(68.0084 -6.72992 2.57913)
(52.0376 7.63035 28.2549)
(34.3266 0.871901 34.9233)
(40.2202 1.41224 29.8983)
(48.0355 -0.7722 28.6887)
(40.284 11.8051 37.0031)
(46.2672 10.1481 32.8956)
(65.2804 0.00486207 2.999)
(67.1941 -1.41461 4.45113)
(67.1246 -4.95061 1.61289)
(69.1579 -3.24741 7.64944)
(67.2829 -4.60541 5.61369)
(32.2856 -0.400103 46.1468)
(22.8488 -1.40523 49.493)
(18.8269 -4.02562 53.6754)
(3.56775 6.76556 19.5106)
(4.43695 7.5654 28.0477)
(21.2961 -2.97886 57.7361)
(9.33111 2.85233 84.3295)
(9.32945 2.73159 84.792)
(3.04472 -6.17964 60.1805)
(-0.0964393 -7.46998 -7.60748)
(-1.22468 -7.66089 71.7219)
(0.412813 -10.7283 76.8194)
(0.469367 -10.6738 76.7772)
(8.97927 1.41094 86.0929)
(7.76205 -0.151994 83.4942)
(9.15572 2.1416 85.7369)
(9.08321 1.9616 85.8151)
(4.99931 -8.69665 84.6888)
(5.14326 -8.43259 84.5427)
(-2.06305 -9.88178 76.809)
(-26.9585 0.428938 -75.2691)
(-19.477 3.05609 -91.2633)
(-31.8269 -11.7341 -89.2948)
(-32.8069 -15.3385 -91.2449)
(-32.0133 -17.4498 -91.9997)
(-28.0191 -17.7141 -91.91)
(-28.0383 -17.7729 -91.8951)
(-24.2593 -16.4285 -90.2804)
(-27.6844 -19.5016 -90.8802)
(-23.1789 -13.2033 -92.4426)
(-22.0248 -12.3856 -90.7312)
(-22.7171 -9.38313 -91.9231)
(-28.0107 -7.66195 -85.3652)
(-32.6198 -7.46002 -91.3734)
(-23.9573 -5.89066 -92.0823)
(-29.2362 -1.78168 -90.2243)
(-29.9024 -4.27127 -91.6983)
(-26.9352 0.698434 -92.1499)
(-24.148 -10.6178 -86.5835)
(-31.1723 -7.0465 -88.8436)
(-27.0365 3.07447 -90.8067)
(-25.7404 5.61189 -91.2402)
(-25.6967 5.85563 -88.0453)
(-22.0821 6.60556 -81.227)
(-22.6821 7.4295 -89.653)
(-18.674 1.2633 -84.4326)
(-18.5057 1.93268 -77.2182)
(-26.232 4.85147 -77.2579)
(-24.4303 6.89452 -73.311)
(-24.0036 6.17534 -84.9004)
(-20.139 -1.70752 -76.9271)
(-20.1259 -1.13361 -82.686)
(-18.9885 5.76298 -73.4158)
(-23.3828 -5.33382 -64.9305)
(-22.0719 7.58401 -70.3271)
(-21.2809 -4.38992 -69.865)
(-16.0879 5.96257 -64.434)
(-16.6766 3.13576 -69.2598)
(-26.0455 6.56445 -65.4329)
(-25.0107 7.57298 -58.2971)
(-18.9424 -5.68643 -63.2183)
(-22.9856 -9.22854 -50.4908)
(-20.291 -7.57172 -57.5378)
(-19.5142 -9.6858 -49.4962)
(-19.564 6.11987 -47.7932)
(-21.7291 -11.1192 -45.5961)
(-23.5362 1.84564 -38.6995)
(-10.7362 -2.51726 -40.633)
(-13.0569 -2.90865 -48.9687)
(-15.6056 -11.0051 -40.1205)
(-8.98355 -0.0517473 -36.2786)
(-22.0196 -9.40326 -34.3214)
(-20.8077 -11.007 -40.3131)
(-24.2705 -7.46056 -33.8773)
(-23.7308 -8.00514 -41.6441)
(-10.3614 8.61027 -12.053)
(-17.9146 -1.7565 7.54684)
(-16.2835 -2.18049 16.0491)
(-2.0666 -9.05932 84.6923)
(-1.70172 -11.1722 81.0532)
(-4.04452 -6.0146 73.5198)
(-4.61181 -7.52289 75.7623)
(-8.75708 0.711317 84.483)
(-7.75707 -0.116995 83.4906)
(-66.8976 0.303332 4.65426)
(-66.5099 -1.34815 1.05114)
(-65.1841 -1.13979 2.95376)
(-65.5127 0.139257 4.2371)
(-67.5641 -1.19734 5.27528)
(-65.5307 2.83769 6.87836)
(-64.5529 2.70411 2.38789)
(-16.5215 10.0665 37.5217)
(-27.7906 12.7677 45.1077)
(-36.1466 11.815 40.3212)
(-62.7037 1.59779 19.6868)
(-59.4817 3.01851 24.2484)
(-57.7077 4.61359 23.9509)
(-61.6211 2.73615 17.5731)
(-60.4822 2.36316 15.9007)
(-60.1922 0.132402 14.3065)
(-6.06007 2.00278 74.3114)
(-7.20633 4.4862 87.3064)
(-4.2668 5.45756 80.6875)
(-11.2365 7.95619 68.5802)
(-0.0164686 7.36161 82.3556)
(-8.69806 0.77573 80.9379)
(-9.21623 2.20961 82.5318)
(-25.391 -1.03092 59.1342)
(-20.3367 -2.55054 58.7658)
(-25.1647 3.29397 62.1618)
(-27.5727 2.29718 59.4364)
(-33.2109 8.96966 48.1359)
(-35.8918 7.18062 44.7004)
(-41.1635 2.10471 27.9307)
(-47.35 1.90901 24.3427)
(-63.8307 3.15513 11.7665)
(-38.3762 0.666858 33.5367)
(-42.1366 0.700767 30.1444)
(-37.0372 2.18325 32.0082)
(-31.5526 8.28847 50.2087)
(-29.1921 8.51217 37.2624)
(-34.4339 7.21271 33.5653)
(-68.4625 -5.84199 5.07675)
(-67.1374 -3.04812 4.72908)
(-68.8693 -4.52887 4.4179)
(-68.3988 -4.9294 -0.10183)
(-69.0946 -3.46957 5.3708)
(-48.3923 -1.25213 31.0158)
(-58.389 -3.27165 15.1176)
(-58.3116 -6.9333 16.8477)
(-23.3943 10.0064 40.0592)
(-25.3089 12.684 41.2155)
(-23.8685 13.6285 43.8374)
(-59.4274 -11.1033 7.64691)
(-60.1537 -8.10951 8.47399)
(-57.7023 -6.3709 14.0003)
(-58.2056 -9.71366 11.5229)
(-52.9825 -1.67279 22.563)
(-56.1445 -4.27409 22.7789)
(-67.9444 -7.7062 11.2878)
(-69.0008 -6.75631 11.2359)
(-65.5037 -5.28237 17.5797)
(-68.8171 -3.95858 11.473)
(-67.7669 -7.05618 4.33151)
(-69.393 -7.77445 5.10628)
(-68.1004 -7.88572 5.0172)
(-64.8162 -5.9615 10.2402)
(-60.4096 -3.55299 13.2711)
(-29.4842 -1.11767 47.1951)
(-36.0387 -0.773869 41.5665)
(-34.788 3.36727 46.6083)
(-41.6087 5.23364 41.0178)
(-58.6263 -4.18045 24.029)
(-62.1188 -5.95926 20.5937)
(-64.5238 2.51537 14.9304)
(-45.4706 -0.309503 31.6819)
(-22.0407 -1.11402 47.8586)
(-63.6094 2.22542 5.3094)
(-66.0547 -0.0907007 0.546077)
(-63.7285 -0.988127 10.5278)
(-40.2931 11.7655 36.1305)
(-11.72 3.9863 28.6125)
(-12.88 6.69373 32.3988)
(-22.068 -3.01184 55.1323)
(-18.1709 2.16734 65.0874)
(-7.72247 -0.0735895 83.4462)
(-4.31672 -6.95182 92.263)
(-6.71326 -6.46562 86.4097)
(-4.13323 -9.46539 85.0299)
(-4.07544 -9.5394 85.0962)
(-8.51422 -0.58148 64.4169)
(-2.40934 -2.8393 64.8569)
(-0.358454 -10.7493 76.8165)
(-1.13554 -10.5218 76.8699)
(-7.86657 -0.294481 84.9207)
(-5.1716 -8.42279 84.5539)
(-5.10147 -8.57036 84.6196)
(-59.8325 -9.46079 14.6624)
(24.7199 -16.6309 -92.632)
(33.3634 -10.7065 -90.6704)
(18.7965 1.50777 -80.8084)
(17.6883 -1.56752 -68.4139)
(22.4667 -6.05774 -63.2859)
(25.9279 -0.579682 -51.0808)
(24.4426 -1.20727 -44.4569)
(13.1423 -1.13822 -49.7238)
(-0.570639 8.65805 -8.3919)
(13.2212 -8.56493 33.876)
(11.8872 -12.4243 28.0546)
(10.4981 -14.2578 24.6027)
(18.1097 9.51534 38.7666)
(22.711 -1.09489 60.6695)
(24.5647 -2.4033 58.4)
(26.4161 -1.76546 53.4901)
(59.7717 -0.958967 25.0798)
(52.3077 2.16201 32.9151)
(69.7734 -6.75849 1.98281)
(35.9003 3.96396 45.7236)
(-21.4175 -6.45755 -89.8589)
(-20.391 -2.88727 -85.9949)
(-22.8243 -12.2512 -88.8244)
(-25.7596 -8.17102 -84.4079)
(-23.7042 8.02814 -54.6723)
(-22.0385 7.4657 -51.0668)
(-13.1036 -1.32261 -55.8767)
(-19.9945 7.2446 -34.1655)
(-24.5589 -4.26488 -40.2647)
(-25.0973 -4.56712 -34.5323)
(-18.5923 8.58902 -19.2211)
(-15.8736 8.64324 -5.70251)
(-8.69254 0.644761 84.4276)
(-65.5627 -0.663257 6.95872)
(-65.7301 1.86191 5.94543)
(-25.2772 -2.81469 55.0506)
(-45.2395 0.762917 36.9283)
(-51.6087 -1.7124 29.944)
(-27.8356 11.0418 39.0668)
(-50.482 8.47745 31.0632)
(-17.8942 7.51162 37.5885)
(-26.3187 -0.966031 42.4444)
(-14.3534 0.126082 26.8419)
(-15.1206 2.72859 33.4928)
(-5.07244 -8.60283 84.6323)
(-5.08327 -8.62493 84.656)
(0.601071 -11.9516 79.8322)
(2.10048 -9.8527 76.8159)
(2.32166 -9.64884 76.7361)
(2.37042 -9.57891 76.738)
(2.23599 -9.73176 76.7754)
(31.3222 -16.416 -91.8747)
(32.67 -14.913 -91.7484)
(9.4389 -14.9228 -6.73097)
(8.15715 -13.3424 -11.2636)
(12.8061 9.70098 -8.08854)
(6.42519 -15.9881 5.34563)
(0.809919 -3.43946 -6.89002)
(14.708 -8.05042 43.9081)
(3.5278 -14.5195 46.6349)
(0.37354 11.0942 -5.94252)
(0.149137 13.3557 -0.250822)
(0.179037 -9.23357 55.3963)
(1.0368 -13.4661 50.5887)
(9.15716 2.16997 85.7083)
(2.14246 -9.01565 84.5923)
(1.72271 -10.5338 81.6712)
(7.76375 0.0147213 83.9906)
(30.1356 7.51858 51.9116)
(26.402 10.5082 53.3806)
(1.45736 5.88939 76.904)
(7.73908 2.06946 82.0008)
(30.6739 4.27349 51.6302)
(21.9407 12.3773 53.9214)
(31.3211 9.61156 37.9587)
(56.8421 -3.63356 19.8283)
(18.7702 -3.46435 49.8723)
(18.8598 -0.566234 46.3291)
(16.285 1.3997 36.8893)
(6.25843 6.12011 24.9461)
(13.0811 -1.69476 61.7125)
(7.78064 -0.153153 84.1409)
(7.78453 -0.130101 84.095)
(7.7821 -0.0284633 83.9986)
(-6.19266 3.01632 80.547)
(-2.38764 -9.60078 76.7016)
(-2.3567 -9.65323 76.7892)
(-29.6429 -17.0617 -90.6922)
(-29.8289 -17.5025 -91.7459)
(-31.2843 -16.3581 -91.7311)
(-32.6451 -14.9488 -91.7496)
(-32.6183 -14.9114 -91.7474)
(-22.4453 1.98367 -45.2473)
(-9.71603 9.00523 -9.76525)
(-13.3823 9.27241 -8.59745)
(-11.4669 4.99647 16.3357)
(-4.62475 8.06346 13.3841)
(-1.10519 -7.76353 -7.61286)
(-1.93694 -9.07405 84.7305)
(-1.78266 -9.03139 84.575)
(-7.92518 -0.266062 85.1191)
(-7.78742 -0.321067 84.7148)
(-62.0235 -0.809774 13.098)
(-2.38863 -2.95697 69.6009)
(-28.6949 0.299601 51.398)
(-24.9553 -1.45938 51.4805)
(-30.4714 2.67341 50.9737)
(-18.2271 13.3968 55.3946)
(-26.5382 10.3818 53.36)
(-40.1755 3.05412 40.9922)
(-19.5724 13.9586 49.2786)
(-20.4294 2.34167 45.0115)
(-4.10186 9.27361 34.3827)
(-8.76161 6.76831 31.4571)
(-18.0335 1.33184 41.7426)
(-17.5719 -4.65502 48.2188)
(-18.9508 -3.11679 55.7112)
(-15.8964 -1.69765 60.0921)
(-7.60994 1.86608 66.205)
(-7.82539 -0.314209 84.8311)
(-4.9219 -8.42363 84.638)
(-4.8706 -8.4234 84.6262)
(30.5719 -5.11002 -91.8577)
(4.62948 -16.1004 -3.23163)
(4.28904 9.30451 34.5776)
(-57.2961 2.0802 19.4441)
)


// edges:

1138
(
(161 0)
(163 164)
(166 165)
(169 167)
(173 170)
(171 173)
(173 168)
(168 174)
(451 175)
(452 1)
(2 1)
(1 3)
(2 3)
(176 453)
(452 454)
(3 4)
(455 3)
(177 178)
(180 5)
(5 179)
(181 180)
(180 6)
(7 181)
(182 7)
(180 183)
(183 5)
(182 178)
(184 185)
(456 184)
(457 185)
(8 458)
(8 178)
(184 8)
(8 186)
(8 187)
(187 459)
(460 7)
(188 461)
(461 460)
(183 7)
(189 179)
(179 462)
(190 188)
(185 9)
(195 194)
(10 195)
(10 196)
(197 193)
(198 199)
(199 11)
(198 200)
(197 11)
(12 193)
(9 201)
(191 9)
(463 191)
(194 197)
(192 464)
(465 192)
(9 196)
(196 193)
(191 190)
(202 466)
(6 177)
(467 468)
(200 13)
(202 203)
(177 469)
(6 14)
(470 205)
(470 467)
(13 471)
(206 14)
(472 14)
(204 473)
(4 206)
(205 454)
(474 208)
(475 455)
(476 209)
(15 477)
(478 479)
(480 175)
(481 482)
(483 477)
(207 211)
(208 484)
(485 486)
(210 487)
(488 489)
(212 490)
(488 491)
(490 492)
(493 494)
(495 496)
(213 497)
(492 498)
(499 495)
(500 501)
(502 214)
(503 504)
(505 506)
(507 508)
(509 510)
(511 512)
(513 514)
(16 217)
(218 216)
(515 516)
(220 517)
(518 519)
(221 219)
(520 221)
(222 521)
(226 225)
(227 18)
(18 226)
(228 227)
(228 19)
(19 229)
(20 21)
(21 230)
(223 20)
(225 223)
(522 233)
(523 20)
(20 162)
(21 523)
(229 21)
(162 229)
(23 24)
(24 235)
(24 524)
(237 238)
(165 239)
(240 239)
(242 241)
(243 241)
(245 25)
(246 25)
(26 25)
(247 246)
(247 26)
(247 240)
(244 26)
(525 248)
(524 249)
(250 251)
(254 526)
(527 27)
(256 528)
(28 255)
(529 253)
(528 530)
(531 28)
(531 29)
(29 30)
(257 259)
(532 255)
(533 260)
(534 535)
(536 537)
(538 539)
(262 540)
(31 541)
(542 264)
(543 249)
(266 252)
(267 268)
(272 271)
(273 542)
(268 269)
(272 544)
(544 545)
(274 264)
(275 274)
(546 276)
(275 546)
(278 279)
(277 278)
(238 279)
(547 548)
(549 547)
(550 551)
(551 552)
(553 554)
(555 556)
(541 32)
(557 558)
(559 560)
(534 561)
(283 562)
(563 564)
(565 262)
(566 284)
(31 284)
(567 285)
(286 287)
(33 290)
(290 34)
(35 291)
(292 35)
(294 293)
(261 568)
(295 569)
(570 282)
(571 572)
(565 573)
(574 575)
(576 577)
(39 37)
(38 39)
(37 40)
(41 38)
(40 41)
(37 42)
(578 40)
(39 42)
(39 43)
(41 44)
(45 41)
(579 578)
(297 44)
(45 297)
(47 42)
(580 298)
(298 44)
(299 46)
(301 300)
(297 287)
(579 47)
(581 48)
(582 583)
(303 302)
(36 584)
(47 36)
(49 585)
(586 587)
(301 306)
(289 307)
(51 588)
(50 51)
(589 50)
(308 50)
(51 306)
(49 587)
(590 557)
(591 592)
(576 593)
(594 595)
(30 52)
(52 257)
(29 53)
(53 52)
(52 29)
(530 53)
(258 30)
(28 540)
(255 254)
(254 256)
(259 596)
(597 54)
(54 294)
(294 597)
(527 290)
(259 310)
(310 289)
(526 55)
(55 56)
(54 55)
(56 27)
(33 310)
(58 293)
(57 35)
(59 57)
(598 60)
(60 34)
(61 60)
(58 34)
(599 57)
(600 292)
(32 258)
(537 594)
(311 601)
(309 602)
(602 311)
(312 603)
(604 605)
(313 606)
(543 314)
(251 265)
(315 241)
(316 607)
(607 608)
(263 18)
(263 226)
(263 62)
(231 62)
(266 609)
(610 318)
(611 319)
(170 63)
(63 612)
(63 233)
(613 167)
(279 320)
(246 614)
(320 237)
(274 248)
(240 243)
(615 240)
(616 617)
(27 55)
(64 22)
(321 64)
(232 163)
(163 161)
(64 163)
(172 168)
(618 227)
(228 322)
(234 619)
(324 619)
(234 322)
(322 323)
(198 65)
(65 202)
(325 65)
(299 304)
(567 297)
(305 291)
(327 620)
(329 327)
(332 66)
(333 621)
(68 69)
(622 68)
(68 70)
(70 71)
(334 335)
(623 334)
(338 339)
(336 624)
(335 624)
(341 335)
(342 341)
(340 343)
(341 343)
(344 346)
(344 345)
(345 72)
(72 346)
(72 340)
(343 625)
(625 347)
(343 348)
(348 349)
(73 350)
(351 73)
(342 74)
(350 352)
(351 352)
(352 353)
(75 349)
(353 75)
(346 354)
(356 355)
(76 339)
(344 76)
(357 358)
(358 338)
(359 358)
(357 337)
(362 77)
(77 363)
(363 355)
(78 77)
(79 363)
(77 79)
(363 364)
(626 361)
(627 356)
(626 627)
(365 362)
(366 628)
(338 366)
(79 366)
(359 629)
(629 364)
(76 356)
(354 80)
(76 354)
(80 76)
(365 80)
(365 75)
(334 367)
(74 334)
(367 74)
(78 630)
(631 78)
(632 630)
(623 633)
(634 367)
(635 632)
(634 636)
(637 638)
(639 368)
(333 640)
(641 642)
(636 641)
(71 642)
(643 67)
(644 645)
(646 647)
(67 648)
(649 650)
(651 652)
(69 653)
(654 369)
(655 69)
(656 370)
(653 657)
(658 647)
(659 660)
(656 661)
(654 662)
(663 664)
(665 372)
(666 662)
(371 667)
(668 669)
(670 81)
(81 664)
(373 671)
(672 673)
(674 675)
(374 676)
(375 331)
(677 678)
(376 83)
(82 376)
(83 82)
(379 679)
(378 376)
(679 380)
(321 378)
(382 680)
(383 381)
(680 383)
(83 326)
(84 681)
(84 682)
(387 385)
(385 386)
(389 683)
(390 388)
(384 391)
(391 390)
(393 392)
(684 384)
(385 684)
(394 384)
(396 85)
(86 396)
(85 86)
(685 397)
(88 399)
(87 88)
(686 87)
(88 687)
(398 688)
(689 400)
(690 691)
(90 91)
(91 691)
(692 401)
(693 694)
(695 696)
(697 698)
(403 699)
(404 700)
(92 405)
(681 406)
(406 93)
(94 407)
(407 701)