/*--------------------------------*- C++ -*----------------------------------*\
  =========                 |
  \\      /  F ield         | OpenFOAM: The Open Source CFD Toolbox
   \\    /   O peration     | Website:  https://openfoam.org
    \\  /    A nd           | Version:  dev
     \\/     M anipulation  |
\*---------------------------------------------------------------------------*/
FoamFile
{
    format      ascii;
    class       polyBoundaryMesh;
    location    "constant/polyMesh";
    object      boundary;
}
// * * * * * * * * * * * * * * * * * * * * * * * * * * * * * * * * * * * * * //

6
(
    front
    {
        type            patch;
        nFaces          1600;
        startFace       187200;
    }
    back
    {
        type            patch;
        nFaces          1600;
        startFace       188800;
    }
    top
    {
        type            patch;
        nFaces          1600;
        startFace       190400;
    }
    bottom
    {
        type            patch;
        nFaces          1600;
        startFace       192000;
    }
    right
    {
        type            patch;
        nFaces          1600;
        startFace       193600;
    }
    left
    {
        type            patch;
        nFaces          1600;
        startFace       195200;
    }
)

// ************************************************************************* //
