FoamFile
{
    version     2.0;
    format      ascii;
    class       dictionary;
    object      snappyHexMeshDict;
}

castellatedMesh true;
snap            true;
addLayers       false;

geometry
{
    HumanHQ0deg.stl
    {
        type triSurfaceMesh;
        name human;
    }
}

castellatedMeshControls
{
    maxLocalCells 1000000;
    maxGlobalCells 2000000;
    minRefinementCells 0;

    locationInMesh (-1.5 0 0);  // STL 외부의 한 점

    refinementSurfaces
    {
        human
        {
            level (2 3);
        }
    }

    resolveFeatureAngle 150;
    allowFreeStandingZoneFaces true;
}

snapControls
{
    nSmoothPatch 3;
    tolerance 2.0;
    nSolveIter 30;
    nRelaxIter 5;
}

meshQualityControls
{
    maxNonOrtho 65;
    maxBoundarySkewness 20;
    maxInternalSkewness 4;
    minVol 1e-13;
    minTetQuality 1e-15;
    minDeterminant 0.001;
    minFaceWeight 0.02;
    minVolRatio 0.01;
    errorReduction 0.75;
}
