FoamFile
{
    version                     2.0;
    format                      ascii;
    class                       dictionary;
    object                      snappyHexMeshDict;
}

mergeTolerance                  1e-6;
castellatedMesh                 true;
snap                            true;
addLayers                       false;

geometry
{
    human
    {
        type                    triSurfaceMesh;
        file                    "HumanHQ0deg.stl";
    }
}

castellatedMeshControls
{
    maxLocalCells               1000000;
    maxGlobalCells              2000000;
    minRefinementCells          0;

    nCellsBetweenLevels        3;

    locationInMesh              (0 0 0);

    refinementSurfaces          
    {   
        human 
        { 
            level (1 2); 
            patchInfo
            {
                type            wall;
                name            human;
            }
        }
    }

    resolveFeatureAngle         0;
    allowFreeStandingZoneFaces  false;
}

snapControls
{
    nSmoothPatch                3;
    tolerance                   2.0;
    nSolveIter                  30;
    nRelaxIter                  5;
}

meshQualityControls
{
    maxNonOrtho                 65;
    maxBoundarySkewness         20;
    maxInternalSkewness         4;
    minVol                      1e-13;
    minTetQuality               1e-9;
    minDeterminant              0.001;
    minFaceWeight               0.02;
    minVolRatio                 0.01;
    errorReduction              0.75;
    maxConcave                  80;
}
