FoamFile
{
    version     2.0;
    format      ascii;
    class       dictionary;
    object      surfaceFeaturesDict;
}

surface
(
    "workspaces/forCFD/CFD/constant/trifurface/HumanHQ0deg.stl"
);
extractFromSurface
{
    extractionMethod    extractFromSurface;
    includedAngle       150;
    writeObj            yes;
}

geometry
{
    HumanHQ0deg.stl
    {
        type triSurfaceMesh;
        name human;
    }
}
